1
 OpenBabel11302000553D
Generated from the CSD
 36 38  0  0  1  0  0  0  0  0  1 V2000
   17.9010   33.9967   24.5354 P   0  0  0  0  0  0  0  0  0  0  0  0
   16.5194   34.4550   24.8005 O   0  5  0  0  0  0  0  0  0  0  0  0
   17.8594   32.6361   23.6769 O   0  5  0  0  0  0  0  0  0  0  0  0
   18.6533   33.7283   25.9335 O   0  0  0  0  0  0  0  0  0  0  0  0
   19.4585   36.9799   18.2163 O   0  0  0  0  0  0  0  0  0  0  0  0
   20.0465   36.1144   19.1897 C   0  0  0  0  0  0  0  0  0  0  0  0
   19.2999   36.2577   20.5175 C   0  0  1  0  0  0  0  0  0  0  0  0
   17.9049   35.9285   20.3480 O   0  0  0  0  0  0  0  0  0  0  0  0
   19.8248   35.2321   21.5453 C   0  0  1  0  0  0  0  0  0  0  0  0
   20.7726   35.8427   22.4232 O   0  0  0  0  0  0  0  0  0  0  0  0
   18.5613   34.8005   22.3258 C   0  0  1  0  0  0  0  0  0  0  0  0
   18.6916   35.1292   23.7102 O   0  0  0  0  0  0  0  0  0  0  0  0
   17.4233   35.6152   21.6737 C   0  0  2  0  0  0  0  0  0  0  0  0
   16.2016   34.8132   21.5949 N   0  0  0  0  0  0  0  0  0  0  0  0
   14.9538   35.2014   21.9871 C   0  0  0  0  0  0  0  0  0  0  0  0
   14.1042   34.2389   21.7728 N   0  0  0  0  0  0  0  0  0  0  0  0
   14.7545   33.1790   21.2328 C   0  0  0  0  0  0  0  0  0  0  0  0
   14.3538   31.8921   20.8057 C   0  0  0  0  0  0  0  0  0  0  0  0
   13.1899   31.5385   20.8916 O   0  0  0  0  0  0  0  0  0  0  0  0
   15.2921   31.0646   20.2950 N   0  0  0  0  0  0  0  0  0  0  0  0
   16.5908   31.4667   20.2100 C   0  0  0  0  0  0  0  0  0  0  0  0
   17.5235   30.6036   19.6931 N   0  0  0  0  0  0  0  0  0  0  0  0
   16.9762   32.6603   20.6023 N   0  0  0  0  0  0  0  0  0  0  0  0
   16.1021   33.5362   21.1133 C   0  0  0  0  0  0  0  0  0  0  0  0
   20.2935   34.4606   21.1149 H   0  0  0  0  0  0  0  0  0  0  0  0
   18.9059   36.4448   17.5884 H   0  0  0  0  0  0  0  0  0  0  0  0
   14.7261   36.0922   22.3805 H   0  0  0  0  0  0  0  0  0  0  0  0
   17.1981   36.4361   22.1985 H   0  0  0  0  0  0  0  0  0  0  0  0
   18.3985   33.8147   22.2860 H   0  0  0  0  0  0  0  0  0  0  0  0
   20.9602   36.7681   22.1158 H   0  0  0  0  0  0  0  0  0  0  0  0
   21.0079   36.3580   19.3171 H   0  0  0  0  0  0  0  0  0  0  0  0
   19.9841   35.1674   18.8744 H   0  0  0  0  0  0  0  0  0  0  0  0
   15.0280   30.1390   19.9733 H   0  0  0  0  0  0  0  0  0  0  0  0
   19.4325   37.2005   20.8231 H   0  0  0  0  0  0  0  0  0  0  0  0
   18.4952   30.8888   19.6234 H   0  0  0  0  0  0  0  0  0  0  0  0
   17.2420   29.6800   19.3805 H   0  0  0  0  0  0  0  0  0  0  0  0
  1  2  1  0  0  0  0
  1  3  1  0  0  0  0
  1  4  2  0  0  0  0
  1 12  1  0  0  0  0
  5 26  1  0  0  0  0
  5  6  1  0  0  0  0
  6  7  1  0  0  0  0
  6 31  1  0  0  0  0
  6 32  1  0  0  0  0
  7  8  1  0  0  0  0
  7  9  1  0  0  0  0
  7 34  1  0  0  0  0
  8 13  1  0  0  0  0
  9 10  1  0  0  0  0
  9 11  1  0  0  0  0
  9 25  1  0  0  0  0
 10 30  1  0  0  0  0
 11 12  1  0  0  0  0
 11 13  1  0  0  0  0
 11 29  1  0  0  0  0
 13 14  1  0  0  0  0
 13 28  1  0  0  0  0
 14 15  1  0  0  0  0
 14 24  1  0  0  0  0
 15 16  2  0  0  0  0
 15 27  1  0  0  0  0
 16 17  1  0  0  0  0
 17 18  1  0  0  0  0
 17 24  2  0  0  0  0
 18 19  2  0  0  0  0
 18 20  1  0  0  0  0
 20 33  1  0  0  0  0
 20 21  1  0  0  0  0
 21 22  1  0  0  0  0
 21 23  2  0  0  0  0
 22 36  1  0  0  0  0
 22 35  1  0  0  0  0
 23 24  1  0  0  0  0
M  CHG  1  2 -1
M  CHG  1  3 -1
M  END
> <BioMolTech Lead Finder dG>
  -4.884

> <BioMolTech Lead Finder VSscore>
  -9.361

> <BioMolTech Lead Finder Rank score>
  -6.462

> <BioMolTech Lead Finder LE>
  -0.204

> <BioMolTech Lead Finder Structure Name>
all.sdf-ligand-1

> <BioMolTech Lead Finder SDF id>
0

> <BioMolTech Lead Finder Pose rank>
0

> <BioMolTech Lead Finder version>
2006 2, 13 June 2020

$$$$
2
 OpenBabel11302000553D
Generated from the CSD
 63 67  0  0  1  0  0  0  0  0  1 V2000
   17.5730   35.3722   24.6834 F   0  0  0  0  0  0  0  0  0  0  0  0
   17.7849   32.6720   21.5853 P   0  0  0  0  0  0  0  0  0  0  0  0
   18.5523   31.7167   22.7374 O   0  5  0  0  0  0  0  0  0  0  0  0
   16.5090   31.8866   21.0211 O   0  0  0  0  0  0  0  0  0  0  0  0
   13.3925   33.5477   21.7748 O   0  0  0  0  0  0  0  0  0  0  0  0
   14.2679   34.6460   21.4788 C   0  0  0  0  0  0  0  0  0  0  0  0
   15.0834   35.0661   22.7273 C   0  0  1  0  0  0  0  0  0  0  0  0
   14.2405   35.1503   23.8906 O   0  0  0  0  0  0  0  0  0  0  0  0
   16.1687   34.0271   23.1010 C   0  0  1  0  0  0  0  0  0  0  0  0
   17.3035   34.1546   22.2300 O   0  0  0  0  0  0  0  0  0  0  0  0
   16.4435   34.4025   24.5746 C   0  0  2  0  0  0  0  0  0  0  0  0
   15.1223   35.0772   25.0307 C   0  0  2  0  0  0  0  0  0  0  0  0
   14.4798   34.3205   26.0857 N   0  0  0  0  0  0  0  0  0  0  0  0
   15.0800   33.3507   26.9271 C   0  0  0  0  0  0  0  0  0  0  0  0
   14.1969   32.8095   27.7042 N   0  0  0  0  0  0  0  0  0  0  0  0
   12.9563   33.4150   27.3928 C   0  0  0  0  0  0  0  0  0  0  0  0
   11.6248   33.1696   27.9296 C   0  0  0  0  0  0  0  0  0  0  0  0
   11.4213   32.3207   28.7958 O   0  0  0  0  0  0  0  0  0  0  0  0
   10.5695   33.9279   27.3590 N   0  0  0  0  0  0  0  0  0  0  0  0
   10.8406   34.8739   26.3231 C   0  0  0  0  0  0  0  0  0  0  0  0
    9.7886   35.6242   25.7558 N   0  0  0  0  0  0  0  0  0  0  0  0
   12.0441   35.0569   25.8842 N   0  0  0  0  0  0  0  0  0  0  0  0
   13.1161   34.3216   26.4220 C   0  0  0  0  0  0  0  0  0  0  0  0
   18.8295   32.9444   20.2887 O   0  0  0  0  0  0  0  0  0  0  0  0
   18.3931   34.0767   19.5184 C   0  0  0  0  0  0  0  0  0  0  0  0
   19.1580   35.3290   20.0086 C   0  0  1  0  0  0  0  0  0  0  0  0
   20.3039   34.9398   20.7894 O   0  0  0  0  0  0  0  0  0  0  0  0
   19.7293   36.1779   18.8453 C   0  0  1  0  0  0  0  0  0  0  0  0
   18.7586   37.1202   18.3696 O   0  0  0  0  0  0  0  0  0  0  0  0
   20.9889   36.8266   19.4759 C   0  0  1  0  0  0  0  0  0  0  0  0
   20.9139   38.2561   19.5990 O   0  0  0  0  0  0  0  0  0  0  0  0
   21.1156   36.1289   20.8590 C   0  0  2  0  0  0  0  0  0  0  0  0
   22.5052   35.8110   21.1789 N   0  0  0  0  0  0  0  0  0  0  0  0
   23.2106   34.7931   20.4787 C   0  0  0  0  0  0  0  0  0  0  0  0
   22.6671   34.1069   19.6130 O   0  0  0  0  0  0  0  0  0  0  0  0
   24.5612   34.5323   20.8001 N   0  0  0  0  0  0  0  0  0  0  0  0
   25.1771   35.1825   21.7282 C   0  0  0  0  0  0  0  0  0  0  0  0
   26.5274   34.8814   22.0064 N   0  0  0  0  0  0  0  0  0  0  0  0
   24.4728   36.2241   22.4912 C   0  0  0  0  0  0  0  0  0  0  0  0
   23.1895   36.5104   22.2108 C   0  0  0  0  0  0  0  0  0  0  0  0
   12.4724   33.8892   21.9259 H   0  0  0  0  0  0  0  0  0  0  0  0
   13.7230   35.4237   21.1653 H   0  0  0  0  0  0  0  0  0  0  0  0
   14.9081   34.3570   20.7670 H   0  0  0  0  0  0  0  0  0  0  0  0
   15.4925   35.9457   22.4846 H   0  0  0  0  0  0  0  0  0  0  0  0
   15.9127   33.0658   22.9996 H   0  0  0  0  0  0  0  0  0  0  0  0
    9.6182   33.7975   27.6881 H   0  0  0  0  0  0  0  0  0  0  0  0
   16.7001   33.6097   25.1275 H   0  0  0  0  0  0  0  0  0  0  0  0
   15.3266   35.9885   25.3881 H   0  0  0  0  0  0  0  0  0  0  0  0
   16.0521   33.1165   26.9213 H   0  0  0  0  0  0  0  0  0  0  0  0
    9.9835   36.2956   25.0200 H   0  0  0  0  0  0  0  0  0  0  0  0
    8.8370   35.4924   26.0836 H   0  0  0  0  0  0  0  0  0  0  0  0
   17.4095   34.2101   19.6397 H   0  0  0  0  0  0  0  0  0  0  0  0
   18.5780   33.9222   18.5478 H   0  0  0  0  0  0  0  0  0  0  0  0
   18.4906   35.8587   20.5321 H   0  0  0  0  0  0  0  0  0  0  0  0
   19.9611   35.6543   18.0254 H   0  0  0  0  0  0  0  0  0  0  0  0
   18.2337   36.7112   17.6326 H   0  0  0  0  0  0  0  0  0  0  0  0
   21.7909   36.6958   18.8930 H   0  0  0  0  0  0  0  0  0  0  0  0
   19.9959   38.5170   19.8731 H   0  0  0  0  0  0  0  0  0  0  0  0
   20.8034   36.7336   21.5917 H   0  0  0  0  0  0  0  0  0  0  0  0
   27.0205   35.3877   22.7349 H   0  0  0  0  0  0  0  0  0  0  0  0
   27.0054   34.1586   21.4780 H   0  0  0  0  0  0  0  0  0  0  0  0
   24.9483   36.7192   23.2183 H   0  0  0  0  0  0  0  0  0  0  0  0
   22.7132   37.2193   22.7311 H   0  0  0  0  0  0  0  0  0  0  0  0
  1 11  1  0  0  0  0
  2  3  1  0  0  0  0
  2 10  1  0  0  0  0
  2 24  1  0  0  0  0
  2  4  2  0  0  0  0
  5 41  1  0  0  0  0
  5  6  1  0  0  0  0
  6  7  1  0  0  0  0
  6 42  1  0  0  0  0
  6 43  1  0  0  0  0
  7  9  1  0  0  0  0
  7  8  1  0  0  0  0
  7 44  1  0  0  0  0
  8 12  1  0  0  0  0
  9 11  1  0  0  0  0
  9 10  1  0  0  0  0
  9 45  1  0  0  0  0
 11 12  1  0  0  0  0
 11 47  1  0  0  0  0
 12 13  1  0  0  0  0
 12 48  1  0  0  0  0
 13 14  1  0  0  0  0
 13 23  1  0  0  0  0
 14 15  2  0  0  0  0
 14 49  1  0  0  0  0
 15 16  1  0  0  0  0
 16 23  2  0  0  0  0
 16 17  1  0  0  0  0
 17 18  2  0  0  0  0
 17 19  1  0  0  0  0
 19 46  1  0  0  0  0
 19 20  1  0  0  0  0
 20 22  2  0  0  0  0
 20 21  1  0  0  0  0
 21 51  1  0  0  0  0
 21 50  1  0  0  0  0
 22 23  1  0  0  0  0
 24 25  1  0  0  0  0
 25 26  1  0  0  0  0
 25 52  1  0  0  0  0
 25 53  1  0  0  0  0
 26 28  1  0  0  0  0
 26 27  1  0  0  0  0
 26 54  1  0  0  0  0
 27 32  1  0  0  0  0
 28 29  1  0  0  0  0
 28 30  1  0  0  0  0
 28 55  1  0  0  0  0
 29 56  1  0  0  0  0
 30 32  1  0  0  0  0
 30 31  1  0  0  0  0
 30 57  1  0  0  0  0
 31 58  1  0  0  0  0
 32 33  1  0  0  0  0
 32 59  1  0  0  0  0
 33 34  1  0  0  0  0
 33 40  1  0  0  0  0
 34 35  2  0  0  0  0
 34 36  1  0  0  0  0
 36 37  2  0  0  0  0
 37 39  1  0  0  0  0
 37 38  1  0  0  0  0
 38 61  1  0  0  0  0
 38 60  1  0  0  0  0
 39 40  2  0  0  0  0
 39 62  1  0  0  0  0
 40 63  1  0  0  0  0
M  CHG  1  3 -1
M  END
> <BioMolTech Lead Finder dG>
  -4.418

> <BioMolTech Lead Finder VSscore>
 -10.480

> <BioMolTech Lead Finder Rank score>
  -6.914

> <BioMolTech Lead Finder LE>
  -0.110

> <BioMolTech Lead Finder Structure Name>
all.sdf-ligand-2

> <BioMolTech Lead Finder SDF id>
1

> <BioMolTech Lead Finder Pose rank>
0

> <BioMolTech Lead Finder version>
2006 2, 13 June 2020

$$$$
3
 OpenBabel11302000553D
Generated from the CSD
 36 38  0  0  1  0  0  0  0  0  1 V2000
   17.2855   30.6166   22.3252 O   0  5  0  0  0  0  0  0  0  0  0  0
   16.8268   31.3645   20.9756 P   0  0  0  0  0  0  0  0  0  0  0  0
   17.6855   30.9277   19.8539 O   0  5  0  0  0  0  0  0  0  0  0  0
   15.2937   30.9951   20.6523 O   0  0  0  0  0  0  0  0  0  0  0  0
   16.9658   32.9561   21.1703 O   0  0  0  0  0  0  0  0  0  0  0  0
   18.3623   33.2434   21.2467 C   0  0  0  0  0  0  0  0  0  0  0  0
   18.5914   34.7370   21.0139 C   0  0  1  0  0  0  0  0  0  0  0  0
   19.8639   35.1421   21.5637 O   0  0  0  0  0  0  0  0  0  0  0  0
   18.6993   35.0400   19.5045 C   0  0  1  0  0  0  0  0  0  0  0  0
   17.4514   35.5184   18.9980 O   0  0  0  0  0  0  0  0  0  0  0  0
   19.7790   36.1437   19.4175 C   0  0  1  0  0  0  0  0  0  0  0  0
   19.2310   37.3368   18.8537 O   0  0  0  0  0  0  0  0  0  0  0  0
   20.1960   36.3726   20.8864 C   0  0  2  0  0  0  0  0  0  0  0  0
   21.6350   36.6315   20.9739 N   0  0  0  0  0  0  0  0  0  0  0  0
   22.5742   35.7915   21.4974 C   0  0  0  0  0  0  0  0  0  0  0  0
   23.7518   36.3389   21.4136 N   0  0  0  0  0  0  0  0  0  0  0  0
   23.6384   37.5588   20.8331 C   0  0  0  0  0  0  0  0  0  0  0  0
   24.5592   38.5778   20.4949 C   0  0  0  0  0  0  0  0  0  0  0  0
   25.7489   38.4465   20.7273 O   0  0  0  0  0  0  0  0  0  0  0  0
   24.0883   39.6967   19.9026 N   0  0  0  0  0  0  0  0  0  0  0  0
   22.7560   39.8346   19.6542 C   0  0  0  0  0  0  0  0  0  0  0  0
   22.3056   40.9856   19.0577 N   0  0  0  0  0  0  0  0  0  0  0  0
   21.8906   38.8958   19.9634 N   0  0  0  0  0  0  0  0  0  0  0  0
   22.2839   37.7576   20.5460 C   0  0  0  0  0  0  0  0  0  0  0  0
   16.9718   34.7763   18.5448 H   0  0  0  0  0  0  0  0  0  0  0  0
   18.8506   32.7167   20.5509 H   0  0  0  0  0  0  0  0  0  0  0  0
   18.7038   32.9933   22.1526 H   0  0  0  0  0  0  0  0  0  0  0  0
   17.8240   35.2160   21.4402 H   0  0  0  0  0  0  0  0  0  0  0  0
   18.9320   34.2305   18.9655 H   0  0  0  0  0  0  0  0  0  0  0  0
   20.5503   35.8875   18.8349 H   0  0  0  0  0  0  0  0  0  0  0  0
   18.8335   37.8915   19.5750 H   0  0  0  0  0  0  0  0  0  0  0  0
   19.7341   37.1619   21.2908 H   0  0  0  0  0  0  0  0  0  0  0  0
   22.3858   34.8900   21.8872 H   0  0  0  0  0  0  0  0  0  0  0  0
   24.7302   40.4383   19.6415 H   0  0  0  0  0  0  0  0  0  0  0  0
   21.3159   41.1039   18.8658 H   0  0  0  0  0  0  0  0  0  0  0  0
   22.9621   41.7185   18.8084 H   0  0  0  0  0  0  0  0  0  0  0  0
  1  2  1  0  0  0  0
  2  3  1  0  0  0  0
  2  4  2  0  0  0  0
  2  5  1  0  0  0  0
  5  6  1  0  0  0  0
  6  7  1  0  0  0  0
  6 26  1  0  0  0  0
  6 27  1  0  0  0  0
  7  8  1  0  0  0  0
  7  9  1  0  0  0  0
  7 28  1  0  0  0  0
  8 13  1  0  0  0  0
  9 10  1  0  0  0  0
  9 11  1  0  0  0  0
  9 29  1  0  0  0  0
 10 25  1  0  0  0  0
 11 12  1  0  0  0  0
 11 13  1  0  0  0  0
 11 30  1  0  0  0  0
 12 31  1  0  0  0  0
 13 14  1  0  0  0  0
 13 32  1  0  0  0  0
 14 15  1  0  0  0  0
 14 24  1  0  0  0  0
 15 16  2  0  0  0  0
 15 33  1  0  0  0  0
 16 17  1  0  0  0  0
 17 18  1  0  0  0  0
 17 24  2  0  0  0  0
 18 19  2  0  0  0  0
 18 20  1  0  0  0  0
 20 34  1  0  0  0  0
 20 21  1  0  0  0  0
 21 22  1  0  0  0  0
 21 23  2  0  0  0  0
 22 36  1  0  0  0  0
 22 35  1  0  0  0  0
 23 24  1  0  0  0  0
M  CHG  1  1 -1
M  CHG  1  3 -1
M  END
> <BioMolTech Lead Finder dG>
  -3.280

> <BioMolTech Lead Finder VSscore>
 -10.255

> <BioMolTech Lead Finder Rank score>
  -5.621

> <BioMolTech Lead Finder LE>
  -0.137

> <BioMolTech Lead Finder Structure Name>
all.sdf-ligand-3

> <BioMolTech Lead Finder SDF id>
2

> <BioMolTech Lead Finder Pose rank>
0

> <BioMolTech Lead Finder version>
2006 2, 13 June 2020

$$$$
4
 OpenBabel11302000553D
Generated from the CSD
 35 38  0  0  1  0  0  0  0  0  1 V2000
   20.7531   35.4598   19.6074 P   0  0  1  0  0  0  0  0  0  0  0  0
   19.8122   37.2836   19.4386 S   0  0  0  0  0  0  0  0  0  0  0  0
   22.1791   35.4046   18.7257 O   0  0  0  0  0  0  0  0  0  0  0  0
   19.0273   34.2500   24.4262 O   0  0  0  0  0  0  0  0  0  0  0  0
   20.0703   33.3965   23.9296 C   0  0  0  0  0  0  0  0  0  0  0  0
   19.9779   33.1822   22.3977 C   0  0  1  0  0  0  0  0  0  0  0  0
   18.8568   32.3450   22.0569 O   0  0  0  0  0  0  0  0  0  0  0  0
   19.7690   34.4976   21.6073 C   0  0  1  0  0  0  0  0  0  0  0  0
   21.0224   35.0873   21.2264 O   0  0  0  0  0  0  0  0  0  0  0  0
   18.9503   34.0451   20.3693 C   0  0  1  0  0  0  0  0  0  0  0  0
   19.7095   34.2169   19.1621 O   0  0  0  0  0  0  0  0  0  0  0  0
   18.6538   32.5497   20.6442 C   0  0  2  0  0  0  0  0  0  0  0  0
   17.2976   32.2027   20.2707 N   0  0  0  0  0  0  0  0  0  0  0  0
   16.8749   30.9829   19.6831 C   0  0  0  0  0  0  0  0  0  0  0  0
   15.5880   30.8576   19.7526 N   0  0  0  0  0  0  0  0  0  0  0  0
   15.1048   32.0100   20.4153 C   0  0  0  0  0  0  0  0  0  0  0  0
   13.7478   32.3868   20.7861 C   0  0  0  0  0  0  0  0  0  0  0  0
   12.7806   31.6751   20.5191 O   0  0  0  0  0  0  0  0  0  0  0  0
   13.6074   33.6152   21.4821 N   0  0  0  0  0  0  0  0  0  0  0  0
   14.7567   34.4095   21.7814 C   0  0  0  0  0  0  0  0  0  0  0  0
   14.6109   35.6321   22.4713 N   0  0  0  0  0  0  0  0  0  0  0  0
   15.9425   34.0280   21.4299 N   0  0  0  0  0  0  0  0  0  0  0  0
   16.1230   32.8144   20.7409 C   0  0  0  0  0  0  0  0  0  0  0  0
   18.1998   34.1036   23.8972 H   0  0  0  0  0  0  0  0  0  0  0  0
   20.0051   32.5088   24.3853 H   0  0  0  0  0  0  0  0  0  0  0  0
   20.9453   33.8406   24.1221 H   0  0  0  0  0  0  0  0  0  0  0  0
   18.1154   34.5799   20.2391 H   0  0  0  0  0  0  0  0  0  0  0  0
   20.8527   32.7657   22.1502 H   0  0  0  0  0  0  0  0  0  0  0  0
   19.3052   35.2041   22.1417 H   0  0  0  0  0  0  0  0  0  0  0  0
   12.6864   33.9311   21.7688 H   0  0  0  0  0  0  0  0  0  0  0  0
   19.2570   31.9665   20.1002 H   0  0  0  0  0  0  0  0  0  0  0  0
   18.5926   37.1195   18.7709 H   0  0  0  0  0  0  0  0  0  0  0  0
   17.4886   30.3098   19.2704 H   0  0  0  0  0  0  0  0  0  0  0  0
   15.4280   36.1956   22.6835 H   0  0  0  0  0  0  0  0  0  0  0  0
   13.6890   35.9477   22.7553 H   0  0  0  0  0  0  0  0  0  0  0  0
  1  3  2  0  0  0  0
  1  2  1  0  0  0  0
  1 11  1  0  0  0  0
  1  9  1  0  0  0  0
  2 32  1  0  0  0  0
  4 24  1  0  0  0  0
  4  5  1  0  0  0  0
  5  6  1  0  0  0  0
  5 25  1  0  0  0  0
  5 26  1  0  0  0  0
  6  8  1  0  0  0  0
  6  7  1  0  0  0  0
  6 28  1  0  0  0  0
  7 12  1  0  0  0  0
  8 10  1  0  0  0  0
  8  9  1  0  0  0  0
  8 29  1  0  0  0  0
 10 11  1  0  0  0  0
 10 12  1  0  0  0  0
 10 27  1  0  0  0  0
 12 13  1  0  0  0  0
 12 31  1  0  0  0  0
 13 14  1  0  0  0  0
 13 23  1  0  0  0  0
 14 15  2  0  0  0  0
 14 33  1  0  0  0  0
 15 16  1  0  0  0  0
 16 23  2  0  0  0  0
 16 17  1  0  0  0  0
 17 18  2  0  0  0  0
 17 19  1  0  0  0  0
 19 30  1  0  0  0  0
 19 20  1  0  0  0  0
 20 22  2  0  0  0  0
 20 21  1  0  0  0  0
 21 35  1  0  0  0  0
 21 34  1  0  0  0  0
 22 23  1  0  0  0  0
M  END
> <BioMolTech Lead Finder dG>
  -7.686

> <BioMolTech Lead Finder VSscore>
 -14.779

> <BioMolTech Lead Finder Rank score>
 -10.265

> <BioMolTech Lead Finder LE>
  -0.334

> <BioMolTech Lead Finder Structure Name>
all.sdf-ligand-4

> <BioMolTech Lead Finder SDF id>
3

> <BioMolTech Lead Finder Pose rank>
0

> <BioMolTech Lead Finder version>
2006 2, 13 June 2020

$$$$
5
 OpenBabel11302000553D
Generated from the CSD
 67 72  0  0  1  0  0  0  0  0  1 V2000
   16.2487   31.8240   27.1500 N   0  0  0  0  0  0  0  0  0  0  0  0
   17.4069   31.1946   26.7956 C   0  0  0  0  0  0  0  0  0  0  0  0
   17.2649   29.9071   26.9163 N   0  0  0  0  0  0  0  0  0  0  0  0
   16.0109   29.6338   27.3535 C   0  0  0  0  0  0  0  0  0  0  0  0
   15.3117   28.4421   27.6573 C   0  0  0  0  0  0  0  0  0  0  0  0
   15.8494   27.3545   27.5372 O   0  0  0  0  0  0  0  0  0  0  0  0
   14.0329   28.5395   28.0818 N   0  0  0  0  0  0  0  0  0  0  0  0
   13.4412   29.7609   28.2117 C   0  0  0  0  0  0  0  0  0  0  0  0
   12.1411   29.8286   28.6456 N   0  0  0  0  0  0  0  0  0  0  0  0
   14.0801   30.8755   27.9335 N   0  0  0  0  0  0  0  0  0  0  0  0
   15.3503   30.8576   27.5126 C   0  0  0  0  0  0  0  0  0  0  0  0
   12.1101   34.9838   26.2385 O   0  0  0  0  0  0  0  0  0  0  0  0
   13.3359   35.0276   25.5067 C   0  0  0  0  0  0  0  0  0  0  0  0
   14.5130   34.9030   26.4754 C   0  0  1  0  0  0  0  0  0  0  0  0
   14.6082   33.5552   26.9637 O   0  0  0  0  0  0  0  0  0  0  0  0
   15.8312   35.2178   25.7414 C   0  0  1  0  0  0  0  0  0  0  0  0
   16.4870   36.3369   26.3420 O   0  0  0  0  0  0  0  0  0  0  0  0
   16.6795   33.9349   25.9175 C   0  0  1  0  0  0  0  0  0  0  0  0
   18.0441   34.2590   26.1919 O   0  0  0  0  0  0  0  0  0  0  0  0
   16.0121   33.2699   27.1483 C   0  0  2  0  0  0  0  0  0  0  0  0
   18.8813   33.9117   24.8610 P   0  0  0  0  0  0  0  0  0  0  0  0
   18.3020   32.7133   24.2125 O   0  5  0  0  0  0  0  0  0  0  0  0
   20.4159   33.6210   25.2529 O   0  0  0  0  0  0  0  0  0  0  0  0
   18.8136   35.1581   23.8443 O   0  0  0  0  0  0  0  0  0  0  0  0
   20.0999   35.2607   23.2305 C   0  0  0  0  0  0  0  0  0  0  0  0
   20.0679   34.5803   21.8611 C   0  0  1  0  0  0  0  0  0  0  0  0
   19.0290   33.5769   21.8223 O   0  0  0  0  0  0  0  0  0  0  0  0
   19.6792   35.5937   20.7617 C   0  0  1  0  0  0  0  0  0  0  0  0
   20.8447   36.0803   20.0938 O   0  0  0  0  0  0  0  0  0  0  0  0
   18.7975   34.7753   19.7893 C   0  0  1  0  0  0  0  0  0  0  0  0
   19.3912   34.7335   18.4900 O   0  0  0  0  0  0  0  0  0  0  0  0
   18.7567   33.3650   20.4199 C   0  0  2  0  0  0  0  0  0  0  0  0
   17.4321   32.7652   20.2427 N   0  0  0  0  0  0  0  0  0  0  0  0
   17.1478   31.6274   19.5443 C   0  0  0  0  0  0  0  0  0  0  0  0
   15.8702   31.3874   19.5954 N   0  0  0  0  0  0  0  0  0  0  0  0
   15.2605   32.3525   20.3249 C   0  0  0  0  0  0  0  0  0  0  0  0
   13.9208   32.6006   20.7055 C   0  0  0  0  0  0  0  0  0  0  0  0
   13.0240   31.8517   20.3603 O   0  0  0  0  0  0  0  0  0  0  0  0
   13.6611   33.6875   21.4656 N   0  0  0  0  0  0  0  0  0  0  0  0
   14.6710   34.5230   21.8418 C   0  0  0  0  0  0  0  0  0  0  0  0
   14.3764   35.6224   22.6083 N   0  0  0  0  0  0  0  0  0  0  0  0
   15.9197   34.3022   21.4945 N   0  0  0  0  0  0  0  0  0  0  0  0
   16.2528   33.2439   20.7476 C   0  0  0  0  0  0  0  0  0  0  0  0
   18.2402   31.6545   26.4890 H   0  0  0  0  0  0  0  0  0  0  0  0
   13.5099   27.6988   28.3051 H   0  0  0  0  0  0  0  0  0  0  0  0
   11.6864   30.7303   28.7475 H   0  0  0  0  0  0  0  0  0  0  0  0
   11.6341   28.9769   28.8646 H   0  0  0  0  0  0  0  0  0  0  0  0
   16.7016   33.3516   25.1055 H   0  0  0  0  0  0  0  0  0  0  0  0
   11.8322   35.9075   26.4744 H   0  0  0  0  0  0  0  0  0  0  0  0
   13.3991   35.8938   25.0110 H   0  0  0  0  0  0  0  0  0  0  0  0
   13.3614   34.2705   24.8540 H   0  0  0  0  0  0  0  0  0  0  0  0
   14.3641   35.5424   27.2297 H   0  0  0  0  0  0  0  0  0  0  0  0
   15.6872   35.4555   24.7808 H   0  0  0  0  0  0  0  0  0  0  0  0
   15.8369   37.0786   26.4575 H   0  0  0  0  0  0  0  0  0  0  0  0
   16.3707   33.6102   28.0175 H   0  0  0  0  0  0  0  0  0  0  0  0
   20.7836   34.8170   23.8099 H   0  0  0  0  0  0  0  0  0  0  0  0
   20.3384   36.2251   23.1164 H   0  0  0  0  0  0  0  0  0  0  0  0
   20.9769   34.1914   21.7109 H   0  0  0  0  0  0  0  0  0  0  0  0
   19.2068   36.3959   21.1269 H   0  0  0  0  0  0  0  0  0  0  0  0
   21.2255   36.8417   20.6050 H   0  0  0  0  0  0  0  0  0  0  0  0
   17.8857   35.1677   19.6681 H   0  0  0  0  0  0  0  0  0  0  0  0
   18.7525   35.0976   17.8225 H   0  0  0  0  0  0  0  0  0  0  0  0
   19.4161   32.7433   19.9971 H   0  0  0  0  0  0  0  0  0  0  0  0
   17.8204   31.0633   19.0655 H   0  0  0  0  0  0  0  0  0  0  0  0
   12.7090   33.8830   21.7581 H   0  0  0  0  0  0  0  0  0  0  0  0
   15.1172   36.2536   22.8963 H   0  0  0  0  0  0  0  0  0  0  0  0
   13.4177   35.8043   22.8874 H   0  0  0  0  0  0  0  0  0  0  0  0
  1  2  1  0  0  0  0
  1 11  1  0  0  0  0
  1 20  1  0  0  0  0
  2  3  2  0  0  0  0
  2 44  1  0  0  0  0
  3  4  1  0  0  0  0
  4  5  1  0  0  0  0
  4 11  2  0  0  0  0
  5  6  2  0  0  0  0
  5  7  1  0  0  0  0
  7 45  1  0  0  0  0
  7  8  1  0  0  0  0
  8  9  1  0  0  0  0
  8 10  2  0  0  0  0
  9 47  1  0  0  0  0
  9 46  1  0  0  0  0
 10 11  1  0  0  0  0
 12 49  1  0  0  0  0
 12 13  1  0  0  0  0
 13 14  1  0  0  0  0
 13 50  1  0  0  0  0
 13 51  1  0  0  0  0
 14 15  1  0  0  0  0
 14 16  1  0  0  0  0
 14 52  1  0  0  0  0
 15 20  1  0  0  0  0
 16 17  1  0  0  0  0
 16 18  1  0  0  0  0
 16 53  1  0  0  0  0
 17 54  1  0  0  0  0
 18 19  1  0  0  0  0
 18 20  1  0  0  0  0
 18 48  1  0  0  0  0
 19 21  1  0  0  0  0
 20 55  1  0  0  0  0
 21 22  1  0  0  0  0
 21 23  2  0  0  0  0
 21 24  1  0  0  0  0
 24 25  1  0  0  0  0
 25 26  1  0  0  0  0
 25 56  1  0  0  0  0
 25 57  1  0  0  0  0
 26 27  1  0  0  0  0
 26 28  1  0  0  0  0
 26 58  1  0  0  0  0
 27 32  1  0  0  0  0
 28 29  1  0  0  0  0
 28 30  1  0  0  0  0
 28 59  1  0  0  0  0
 29 60  1  0  0  0  0
 30 31  1  0  0  0  0
 30 32  1  0  0  0  0
 30 61  1  0  0  0  0
 31 62  1  0  0  0  0
 32 33  1  0  0  0  0
 32 63  1  0  0  0  0
 33 34  1  0  0  0  0
 33 43  1  0  0  0  0
 34 35  2  0  0  0  0
 34 64  1  0  0  0  0
 35 36  1  0  0  0  0
 36 37  1  0  0  0  0
 36 43  2  0  0  0  0
 37 38  2  0  0  0  0
 37 39  1  0  0  0  0
 39 65  1  0  0  0  0
 39 40  1  0  0  0  0
 40 41  1  0  0  0  0
 40 42  2  0  0  0  0
 41 67  1  0  0  0  0
 41 66  1  0  0  0  0
 42 43  1  0  0  0  0
M  CHG  1  22 -1
M  END
> <BioMolTech Lead Finder dG>
  -4.565

> <BioMolTech Lead Finder VSscore>
 -15.659

> <BioMolTech Lead Finder Rank score>
  -9.199

> <BioMolTech Lead Finder LE>
  -0.106

> <BioMolTech Lead Finder Structure Name>
all.sdf-ligand-5

> <BioMolTech Lead Finder SDF id>
4

> <BioMolTech Lead Finder Pose rank>
0

> <BioMolTech Lead Finder version>
2006 2, 13 June 2020

$$$$
6
 OpenBabel11302000553D
Generated from the CSD
 39 41  0  0  1  0  0  0  0  0  1 V2000
   20.6097   37.0222   19.9097 P   0  0  0  0  0  0  0  0  0  0  0  0
   19.4787   37.4623   20.7567 O   0  5  0  0  0  0  0  0  0  0  0  0
   21.9147   37.8989   20.2593 O   0  5  0  0  0  0  0  0  0  0  0  0
   20.2287   37.2227   18.3583 O   0  0  0  0  0  0  0  0  0  0  0  0
   18.5304   34.2905   24.7009 P   0  0  0  0  0  0  0  0  0  0  0  0
   17.4994   33.5294   23.9634 O   0  5  0  0  0  0  0  0  0  0  0  0
   19.4579   33.2715   25.5329 O   0  5  0  0  0  0  0  0  0  0  0  0
   17.8157   35.3170   25.7156 O   0  0  0  0  0  0  0  0  0  0  0  0
   19.4387   35.1139   23.6575 O   0  0  0  0  0  0  0  0  0  0  0  0
   20.4970   34.2421   23.2526 C   0  0  0  0  0  0  0  0  0  0  0  0
   20.2497   33.7716   21.8184 C   0  0  1  0  0  0  0  0  0  0  0  0
   19.1424   32.8454   21.7770 O   0  0  0  0  0  0  0  0  0  0  0  0
   19.8072   34.9545   20.9309 C   0  0  1  0  0  0  0  0  0  0  0  0
   20.9163   35.4667   20.1905 O   0  0  0  0  0  0  0  0  0  0  0  0
   18.7576   34.3376   19.9778 C   0  0  1  0  0  0  0  0  0  0  0  0
   19.1844   34.4529   18.6196 O   0  0  0  0  0  0  0  0  0  0  0  0
   18.6889   32.8559   20.4071 C   0  0  2  0  0  0  0  0  0  0  0  0
   17.3126   32.3630   20.3221 N   0  0  0  0  0  0  0  0  0  0  0  0
   16.9107   31.1815   19.7698 C   0  0  0  0  0  0  0  0  0  0  0  0
   15.6192   31.0650   19.8666 N   0  0  0  0  0  0  0  0  0  0  0  0
   15.1153   32.1614   20.4851 C   0  0  0  0  0  0  0  0  0  0  0  0
   13.8132   32.5739   20.8512 C   0  0  0  0  0  0  0  0  0  0  0  0
   12.8447   31.8733   20.6118 O   0  0  0  0  0  0  0  0  0  0  0  0
   13.6686   33.7613   21.4790 N   0  0  0  0  0  0  0  0  0  0  0  0
   14.7576   34.5396   21.7362 C   0  0  0  0  0  0  0  0  0  0  0  0
   14.5807   35.7442   22.3702 N   0  0  0  0  0  0  0  0  0  0  0  0
   15.9727   34.1671   21.4013 N   0  0  0  0  0  0  0  0  0  0  0  0
   16.1937   33.0020   20.7830 C   0  0  0  0  0  0  0  0  0  0  0  0
   20.5320   33.4516   23.8641 H   0  0  0  0  0  0  0  0  0  0  0  0
   21.3674   34.7325   23.2958 H   0  0  0  0  0  0  0  0  0  0  0  0
   17.5188   30.5060   19.3528 H   0  0  0  0  0  0  0  0  0  0  0  0
   21.1023   33.3579   21.4990 H   0  0  0  0  0  0  0  0  0  0  0  0
   19.4428   35.7196   21.4618 H   0  0  0  0  0  0  0  0  0  0  0  0
   17.8695   34.7942   20.0316 H   0  0  0  0  0  0  0  0  0  0  0  0
   18.5689   35.0586   18.1295 H   0  0  0  0  0  0  0  0  0  0  0  0
   19.2447   32.2669   19.8205 H   0  0  0  0  0  0  0  0  0  0  0  0
   12.7452   34.0752   21.7603 H   0  0  0  0  0  0  0  0  0  0  0  0
   15.3814   36.3355   22.5690 H   0  0  0  0  0  0  0  0  0  0  0  0
   13.6492   36.0436   22.6402 H   0  0  0  0  0  0  0  0  0  0  0  0
  1  2  1  0  0  0  0
  1  3  1  0  0  0  0
  1  4  2  0  0  0  0
  1 14  1  0  0  0  0
  5  6  1  0  0  0  0
  5  7  1  0  0  0  0
  5  8  2  0  0  0  0
  5  9  1  0  0  0  0
  9 10  1  0  0  0  0
 10 11  1  0  0  0  0
 10 29  1  0  0  0  0
 10 30  1  0  0  0  0
 11 12  1  0  0  0  0
 11 13  1  0  0  0  0
 11 32  1  0  0  0  0
 12 17  1  0  0  0  0
 13 14  1  0  0  0  0
 13 15  1  0  0  0  0
 13 33  1  0  0  0  0
 15 16  1  0  0  0  0
 15 17  1  0  0  0  0
 15 34  1  0  0  0  0
 16 35  1  0  0  0  0
 17 18  1  0  0  0  0
 17 36  1  0  0  0  0
 18 19  1  0  0  0  0
 18 28  1  0  0  0  0
 19 20  2  0  0  0  0
 19 31  1  0  0  0  0
 20 21  1  0  0  0  0
 21 22  1  0  0  0  0
 21 28  2  0  0  0  0
 22 23  2  0  0  0  0
 22 24  1  0  0  0  0
 24 37  1  0  0  0  0
 24 25  1  0  0  0  0
 25 26  1  0  0  0  0
 25 27  2  0  0  0  0
 26 39  1  0  0  0  0
 26 38  1  0  0  0  0
 27 28  1  0  0  0  0
M  CHG  1  2 -1
M  CHG  1  3 -1
M  CHG  1  6 -1
M  CHG  1  7 -1
M  END
> <BioMolTech Lead Finder dG>
  -4.851

> <BioMolTech Lead Finder VSscore>
 -12.815

> <BioMolTech Lead Finder Rank score>
  -6.661

> <BioMolTech Lead Finder LE>
  -0.173

> <BioMolTech Lead Finder Structure Name>
all.sdf-ligand-6

> <BioMolTech Lead Finder SDF id>
5

> <BioMolTech Lead Finder Pose rank>
0

> <BioMolTech Lead Finder version>
2006 2, 13 June 2020

$$$$
7
 OpenBabel11302000553D
Generated from the CSD
 63 67  0  0  1  0  0  0  0  0  1 V2000
   13.6564   33.7609   21.4756 N   0  0  0  0  0  0  0  0  0  0  0  0
   14.7667   34.4832   21.9710 C   0  0  0  0  0  0  0  0  0  0  0  0
   14.4663   35.6654   22.5970 N   0  0  0  0  0  0  0  0  0  0  0  0
   16.0053   34.0568   21.8437 N   0  0  0  0  0  0  0  0  0  0  0  0
   16.0923   32.8726   21.1987 C   0  0  0  0  0  0  0  0  0  0  0  0
   15.0858   32.0925   20.6812 C   0  0  0  0  0  0  0  0  0  0  0  0
   13.7239   32.5315   20.8040 C   0  0  0  0  0  0  0  0  0  0  0  0
   12.7650   31.9045   20.3747 O   0  0  0  0  0  0  0  0  0  0  0  0
   15.5665   30.9578   20.0986 N   0  0  0  0  0  0  0  0  0  0  0  0
   16.8716   31.0451   20.2601 C   0  0  0  0  0  0  0  0  0  0  0  0
   17.2419   32.1904   20.9230 N   0  0  0  0  0  0  0  0  0  0  0  0
   18.6083   32.5862   21.2601 C   0  0  1  0  0  0  0  0  0  0  0  0
   19.5813   32.5047   20.0919 C   0  0  2  0  0  0  0  0  0  0  0  0
   20.3393   31.3827   20.2630 F   0  0  0  0  0  0  0  0  0  0  0  0
   20.4548   33.7210   20.2892 C   0  0  2  0  0  0  0  0  0  0  0  0
   21.5259   33.4833   21.1780 O   0  0  0  0  0  0  0  0  0  0  0  0
   19.4573   34.7179   20.8498 C   0  0  2  0  0  0  0  0  0  0  0  0
   18.6180   33.9506   21.7297 O   0  0  0  0  0  0  0  0  0  0  0  0
   18.6092   35.3921   19.7858 C   0  0  0  0  0  0  0  0  0  0  0  0
   19.4186   35.6532   18.6516 O   0  0  0  0  0  0  0  0  0  0  0  0
   23.0530   33.6583   20.6707 P   0  0  0  0  0  0  0  0  0  0  0  0
   24.0752   32.9224   21.4888 O   0  5  0  0  0  0  0  0  0  0  0  0
   23.0070   33.2122   19.1152 O   0  0  0  0  0  0  0  0  0  0  0  0
   23.2836   35.2595   20.5859 O   0  0  0  0  0  0  0  0  0  0  0  0
   22.2878   36.1137   21.1186 C   0  0  0  0  0  0  0  0  0  0  0  0
   22.9112   37.4762   21.3940 C   0  0  1  0  0  0  0  0  0  0  0  0
   22.8334   37.7278   22.8143 O   0  0  0  0  0  0  0  0  0  0  0  0
   24.3905   37.5436   21.0386 C   0  0  1  0  0  0  0  0  0  0  0  0
   24.7264   38.9130   20.8131 O   0  0  0  0  0  0  0  0  0  0  0  0
   25.0456   37.0446   22.3094 C   0  0  1  0  0  0  0  0  0  0  0  0
   26.3879   37.4678   22.4234 O   0  0  0  0  0  0  0  0  0  0  0  0
   24.1506   37.6431   23.3806 C   0  0  2  0  0  0  0  0  0  0  0  0
   24.0978   36.8344   24.5656 N   0  0  0  0  0  0  0  0  0  0  0  0
   25.0072   37.0132   25.6384 C   0  0  0  0  0  0  0  0  0  0  0  0
   25.8840   37.8776   25.5889 O   0  0  0  0  0  0  0  0  0  0  0  0
   24.8964   36.1956   26.7512 N   0  0  0  0  0  0  0  0  0  0  0  0
   23.9742   35.2729   26.8213 C   0  0  0  0  0  0  0  0  0  0  0  0
   23.8816   34.4710   27.9362 N   0  0  0  0  0  0  0  0  0  0  0  0
   23.0026   35.0549   25.7175 C   0  0  0  0  0  0  0  0  0  0  0  0
   23.1253   35.8512   24.6567 C   0  0  0  0  0  0  0  0  0  0  0  0
   12.7361   34.1650   21.6174 H   0  0  0  0  0  0  0  0  0  0  0  0
   15.2102   36.2405   22.9793 H   0  0  0  0  0  0  0  0  0  0  0  0
   13.5001   35.9655   22.6781 H   0  0  0  0  0  0  0  0  0  0  0  0
   17.5195   30.3554   19.9367 H   0  0  0  0  0  0  0  0  0  0  0  0
   18.2397   36.2502   20.1425 H   0  0  0  0  0  0  0  0  0  0  0  0
   17.8498   34.7944   19.5286 H   0  0  0  0  0  0  0  0  0  0  0  0
   18.9093   31.9390   21.9605 H   0  0  0  0  0  0  0  0  0  0  0  0
   19.1463   32.4724   19.1920 H   0  0  0  0  0  0  0  0  0  0  0  0
   20.9135   34.0256   19.4545 H   0  0  0  0  0  0  0  0  0  0  0  0
   19.9416   35.4636   21.3074 H   0  0  0  0  0  0  0  0  0  0  0  0
   18.8441   35.7289   17.8453 H   0  0  0  0  0  0  0  0  0  0  0  0
   21.9292   35.7266   21.9681 H   0  0  0  0  0  0  0  0  0  0  0  0
   21.5358   36.2093   20.4664 H   0  0  0  0  0  0  0  0  0  0  0  0
   22.4127   38.1393   20.8357 H   0  0  0  0  0  0  0  0  0  0  0  0
   24.6597   37.0245   20.2274 H   0  0  0  0  0  0  0  0  0  0  0  0
   25.0487   39.0255   19.8807 H   0  0  0  0  0  0  0  0  0  0  0  0
   25.1150   36.0483   22.3612 H   0  0  0  0  0  0  0  0  0  0  0  0
   26.8562   36.9059   23.0950 H   0  0  0  0  0  0  0  0  0  0  0  0
   24.5125   38.5348   23.6526 H   0  0  0  0  0  0  0  0  0  0  0  0
   23.1642   33.7549   27.9881 H   0  0  0  0  0  0  0  0  0  0  0  0
   24.5307   34.5959   28.7064 H   0  0  0  0  0  0  0  0  0  0  0  0
   22.2958   34.3494   25.7686 H   0  0  0  0  0  0  0  0  0  0  0  0
   22.4890   35.7346   23.8942 H   0  0  0  0  0  0  0  0  0  0  0  0
  1 41  1  0  0  0  0
  1  2  1  0  0  0  0
  1  7  1  0  0  0  0
  2  3  1  0  0  0  0
  2  4  2  0  0  0  0
  3 43  1  0  0  0  0
  3 42  1  0  0  0  0
  4  5  1  0  0  0  0
  5  6  2  0  0  0  0
  5 11  1  0  0  0  0
  6  7  1  0  0  0  0
  6  9  1  0  0  0  0
  7  8  2  0  0  0  0
  9 10  2  0  0  0  0
 10 11  1  0  0  0  0
 10 44  1  0  0  0  0
 11 12  1  0  0  0  0
 12 13  1  0  0  0  0
 12 18  1  0  0  0  0
 12 47  1  0  0  0  0
 13 14  1  0  0  0  0
 13 15  1  0  0  0  0
 13 48  1  0  0  0  0
 15 16  1  0  0  0  0
 15 17  1  0  0  0  0
 15 49  1  0  0  0  0
 16 21  1  0  0  0  0
 17 18  1  0  0  0  0
 17 19  1  0  0  0  0
 17 50  1  0  0  0  0
 19 20  1  0  0  0  0
 19 45  1  0  0  0  0
 19 46  1  0  0  0  0
 20 51  1  0  0  0  0
 21 22  1  0  0  0  0
 21 23  2  0  0  0  0
 21 24  1  0  0  0  0
 24 25  1  0  0  0  0
 25 26  1  0  0  0  0
 25 52  1  0  0  0  0
 25 53  1  0  0  0  0
 26 27  1  0  0  0  0
 26 28  1  0  0  0  0
 26 54  1  0  0  0  0
 27 32  1  0  0  0  0
 28 29  1  0  0  0  0
 28 30  1  0  0  0  0
 28 55  1  0  0  0  0
 29 56  1  0  0  0  0
 30 31  1  0  0  0  0
 30 32  1  0  0  0  0
 30 57  1  0  0  0  0
 31 58  1  0  0  0  0
 32 33  1  0  0  0  0
 32 59  1  0  0  0  0
 33 34  1  0  0  0  0
 33 40  1  0  0  0  0
 34 35  2  0  0  0  0
 34 36  1  0  0  0  0
 36 37  2  0  0  0  0
 37 38  1  0  0  0  0
 37 39  1  0  0  0  0
 38 61  1  0  0  0  0
 38 60  1  0  0  0  0
 39 40  2  0  0  0  0
 39 62  1  0  0  0  0
 40 63  1  0  0  0  0
M  CHG  1  22 -1
M  END
> <BioMolTech Lead Finder dG>
  -4.049

> <BioMolTech Lead Finder VSscore>
 -15.759

> <BioMolTech Lead Finder Rank score>
  -9.302

> <BioMolTech Lead Finder LE>
  -0.101

> <BioMolTech Lead Finder Structure Name>
all.sdf-ligand-7

> <BioMolTech Lead Finder SDF id>
6

> <BioMolTech Lead Finder Pose rank>
0

> <BioMolTech Lead Finder version>
2006 2, 13 June 2020

$$$$
8
 OpenBabel11302000553D
Generated from the CSD
 34 37  0  0  1  0  0  0  0  0  1 V2000
   20.6454   35.4642   19.3505 P   0  0  1  0  0  0  0  0  0  0  0  0
   20.5858   37.3231   19.2494 S   0  0  0  0  0  0  0  0  0  0  0  0
   21.5975   34.8258   18.2196 O   0  5  0  0  0  0  0  0  0  0  0  0
   18.2966   34.8317   24.2132 O   0  0  0  0  0  0  0  0  0  0  0  0
   19.6821   34.5304   24.0370 C   0  0  0  0  0  0  0  0  0  0  0  0
   19.9011   33.9341   22.6455 C   0  0  1  0  0  0  0  0  0  0  0  0
   18.8379   33.0202   22.3314 O   0  0  0  0  0  0  0  0  0  0  0  0
   19.8769   35.0519   21.5832 C   0  0  1  0  0  0  0  0  0  0  0  0
   21.1138   34.9823   20.8370 O   0  0  0  0  0  0  0  0  0  0  0  0
   18.7348   34.6315   20.6227 C   0  0  1  0  0  0  0  0  0  0  0  0
   19.1489   34.8336   19.2624 O   0  0  0  0  0  0  0  0  0  0  0  0
   18.6023   33.1182   20.9106 C   0  0  2  0  0  0  0  0  0  0  0  0
   17.2577   32.6445   20.5767 N   0  0  0  0  0  0  0  0  0  0  0  0
   16.9499   31.6344   19.7114 C   0  0  0  0  0  0  0  0  0  0  0  0
   15.6591   31.4810   19.6546 N   0  0  0  0  0  0  0  0  0  0  0  0
   15.0643   32.3800   20.4763 C   0  0  0  0  0  0  0  0  0  0  0  0
   13.7203   32.6692   20.8103 C   0  0  0  0  0  0  0  0  0  0  0  0
   12.8028   32.0387   20.3137 O   0  0  0  0  0  0  0  0  0  0  0  0
   13.4790   33.6590   21.6971 N   0  0  0  0  0  0  0  0  0  0  0  0
   14.5127   34.3612   22.2422 C   0  0  0  0  0  0  0  0  0  0  0  0
   14.2372   35.3644   23.1374 N   0  0  0  0  0  0  0  0  0  0  0  0
   15.7643   34.1018   21.9406 N   0  0  0  0  0  0  0  0  0  0  0  0
   16.0808   33.1322   21.0744 C   0  0  0  0  0  0  0  0  0  0  0  0
   18.0333   35.5565   23.5877 H   0  0  0  0  0  0  0  0  0  0  0  0
   19.9733   33.8744   24.7333 H   0  0  0  0  0  0  0  0  0  0  0  0
   20.2196   35.3688   24.1275 H   0  0  0  0  0  0  0  0  0  0  0  0
   17.8857   35.1440   20.7505 H   0  0  0  0  0  0  0  0  0  0  0  0
   20.7838   33.4641   22.6434 H   0  0  0  0  0  0  0  0  0  0  0  0
   19.7595   35.9649   21.9738 H   0  0  0  0  0  0  0  0  0  0  0  0
   12.5237   33.8811   21.9588 H   0  0  0  0  0  0  0  0  0  0  0  0
   19.2353   32.5627   20.3716 H   0  0  0  0  0  0  0  0  0  0  0  0
   17.6164   31.0936   19.1982 H   0  0  0  0  0  0  0  0  0  0  0  0
   14.9953   35.8967   23.5523 H   0  0  0  0  0  0  0  0  0  0  0  0
   13.2753   35.5741   23.3845 H   0  0  0  0  0  0  0  0  0  0  0  0
  1  2  2  0  0  0  0
  1  3  1  0  0  0  0
  1  9  1  0  0  0  0
  1 11  1  0  0  0  0
  4 24  1  0  0  0  0
  4  5  1  0  0  0  0
  5  6  1  0  0  0  0
  5 25  1  0  0  0  0
  5 26  1  0  0  0  0
  6  7  1  0  0  0  0
  6  8  1  0  0  0  0
  6 28  1  0  0  0  0
  7 12  1  0  0  0  0
  8  9  1  0  0  0  0
  8 10  1  0  0  0  0
  8 29  1  0  0  0  0
 10 11  1  0  0  0  0
 10 12  1  0  0  0  0
 10 27  1  0  0  0  0
 12 13  1  0  0  0  0
 12 31  1  0  0  0  0
 13 14  1  0  0  0  0
 13 23  1  0  0  0  0
 14 15  2  0  0  0  0
 14 32  1  0  0  0  0
 15 16  1  0  0  0  0
 16 17  1  0  0  0  0
 16 23  2  0  0  0  0
 17 18  2  0  0  0  0
 17 19  1  0  0  0  0
 19 30  1  0  0  0  0
 19 20  1  0  0  0  0
 20 21  1  0  0  0  0
 20 22  2  0  0  0  0
 21 34  1  0  0  0  0
 21 33  1  0  0  0  0
 22 23  1  0  0  0  0
M  CHG  1  3 -1
M  END
> <BioMolTech Lead Finder dG>
  -6.281

> <BioMolTech Lead Finder VSscore>
 -14.133

> <BioMolTech Lead Finder Rank score>
  -8.168

> <BioMolTech Lead Finder LE>
  -0.273

> <BioMolTech Lead Finder Structure Name>
all.sdf-ligand-8

> <BioMolTech Lead Finder SDF id>
7

> <BioMolTech Lead Finder Pose rank>
0

> <BioMolTech Lead Finder version>
2006 2, 13 June 2020

$$$$
9
 OpenBabel11302000553D
Generated from the CSD
 36 38  0  0  1  0  0  0  0  0  1 V2000
   21.8141   35.4161   22.7674 P   0  0  0  0  0  0  0  0  0  0  0  0
   22.2535   36.8220   22.9070 O   0  5  0  0  0  0  0  0  0  0  0  0
   20.9033   35.0103   24.0305 O   0  5  0  0  0  0  0  0  0  0  0  0
   23.1036   34.4536   22.7041 O   0  0  0  0  0  0  0  0  0  0  0  0
   22.9938   32.1680   20.5351 O   0  0  0  0  0  0  0  0  0  0  0  0
   21.7092   32.0268   21.1448 C   0  0  0  0  0  0  0  0  0  0  0  0
   20.7263   33.0019   20.4954 C   0  0  1  0  0  0  0  0  0  0  0  0
   19.5372   32.3055   20.0641 O   0  0  0  0  0  0  0  0  0  0  0  0
   20.2258   34.0344   21.5288 C   0  0  1  0  0  0  0  0  0  0  0  0
   20.9581   35.2543   21.4129 O   0  0  0  0  0  0  0  0  0  0  0  0
   18.7413   34.2535   21.1530 C   0  0  1  0  0  0  0  0  0  0  0  0
   18.5118   35.6175   20.7975 O   0  0  0  0  0  0  0  0  0  0  0  0
   18.5232   33.3253   19.9399 C   0  0  2  0  0  0  0  0  0  0  0  0
   17.1874   32.7250   19.9910 N   0  0  0  0  0  0  0  0  0  0  0  0
   16.8150   31.5372   19.4322 C   0  0  0  0  0  0  0  0  0  0  0  0
   15.5563   31.3131   19.6716 N   0  0  0  0  0  0  0  0  0  0  0  0
   15.0469   32.3393   20.3958 C   0  0  0  0  0  0  0  0  0  0  0  0
   13.7695   32.6304   20.9299 C   0  0  0  0  0  0  0  0  0  0  0  0
   12.8359   31.8621   20.7694 O   0  0  0  0  0  0  0  0  0  0  0  0
   13.6115   33.7759   21.6255 N   0  0  0  0  0  0  0  0  0  0  0  0
   14.6607   34.6303   21.7930 C   0  0  0  0  0  0  0  0  0  0  0  0
   14.4691   35.7906   22.5008 N   0  0  0  0  0  0  0  0  0  0  0  0
   15.8524   34.3715   21.3025 N   0  0  0  0  0  0  0  0  0  0  0  0
   16.0858   33.2520   20.6075 C   0  0  0  0  0  0  0  0  0  0  0  0
   23.2241   33.1315   20.4678 H   0  0  0  0  0  0  0  0  0  0  0  0
   21.7796   32.2226   22.1229 H   0  0  0  0  0  0  0  0  0  0  0  0
   21.3812   31.0908   21.0175 H   0  0  0  0  0  0  0  0  0  0  0  0
   21.2098   33.4339   19.7340 H   0  0  0  0  0  0  0  0  0  0  0  0
   20.3422   33.7235   22.4721 H   0  0  0  0  0  0  0  0  0  0  0  0
   18.1157   34.0519   21.9067 H   0  0  0  0  0  0  0  0  0  0  0  0
   17.8947   35.6578   20.0206 H   0  0  0  0  0  0  0  0  0  0  0  0
   18.5881   33.8177   19.0720 H   0  0  0  0  0  0  0  0  0  0  0  0
   17.4191   30.9301   18.9160 H   0  0  0  0  0  0  0  0  0  0  0  0
   12.7069   34.0026   22.0261 H   0  0  0  0  0  0  0  0  0  0  0  0
   15.2403   36.4369   22.6343 H   0  0  0  0  0  0  0  0  0  0  0  0
   13.5562   36.0023   22.8907 H   0  0  0  0  0  0  0  0  0  0  0  0
  1  2  1  0  0  0  0
  1  3  1  0  0  0  0
  1  4  2  0  0  0  0
  1 10  1  0  0  0  0
  5 25  1  0  0  0  0
  5  6  1  0  0  0  0
  6  7  1  0  0  0  0
  6 26  1  0  0  0  0
  6 27  1  0  0  0  0
  7  8  1  0  0  0  0
  7  9  1  0  0  0  0
  7 28  1  0  0  0  0
  8 13  1  0  0  0  0
  9 10  1  0  0  0  0
  9 11  1  0  0  0  0
  9 29  1  0  0  0  0
 11 12  1  0  0  0  0
 11 13  1  0  0  0  0
 11 30  1  0  0  0  0
 12 31  1  0  0  0  0
 13 14  1  0  0  0  0
 13 32  1  0  0  0  0
 14 15  1  0  0  0  0
 14 24  1  0  0  0  0
 15 16  2  0  0  0  0
 15 33  1  0  0  0  0
 16 17  1  0  0  0  0
 17 18  1  0  0  0  0
 17 24  2  0  0  0  0
 18 19  2  0  0  0  0
 18 20  1  0  0  0  0
 20 34  1  0  0  0  0
 20 21  1  0  0  0  0
 21 22  1  0  0  0  0
 21 23  2  0  0  0  0
 22 36  1  0  0  0  0
 22 35  1  0  0  0  0
 23 24  1  0  0  0  0
M  CHG  1  2 -1
M  CHG  1  3 -1
M  END
> <BioMolTech Lead Finder dG>
  -5.102

> <BioMolTech Lead Finder VSscore>
 -11.664

> <BioMolTech Lead Finder Rank score>
  -6.736

> <BioMolTech Lead Finder LE>
  -0.213

> <BioMolTech Lead Finder Structure Name>
all.sdf-ligand-9

> <BioMolTech Lead Finder SDF id>
8

> <BioMolTech Lead Finder Pose rank>
0

> <BioMolTech Lead Finder version>
2006 2, 13 June 2020

$$$$
10
 OpenBabel11302000553D
Generated from the CSD
 62 66  0  0  1  0  0  0  0  0  1 V2000
   22.5788   33.6123   22.4092 O   0  0  0  0  0  0  0  0  0  0  0  0
   21.5012   32.6887   22.1956 C   0  0  0  0  0  0  0  0  0  0  0  0
   20.6938   33.0489   20.9213 C   0  0  1  0  0  0  0  0  0  0  0  0
   19.6121   32.1043   20.7729 O   0  0  0  0  0  0  0  0  0  0  0  0
   20.0736   34.4747   20.9913 C   0  0  1  0  0  0  0  0  0  0  0  0
   20.5533   35.3234   19.9298 O   0  0  0  0  0  0  0  0  0  0  0  0
   18.5664   34.2243   20.7701 C   0  0  0  0  0  0  0  0  0  0  0  0
   18.5430   32.8198   20.1326 C   0  0  2  0  0  0  0  0  0  0  0  0
   17.2770   32.1515   20.3462 N   0  0  0  0  0  0  0  0  0  0  0  0
   16.9208   30.8536   19.9018 C   0  0  0  0  0  0  0  0  0  0  0  0
   15.6594   30.6326   20.0935 N   0  0  0  0  0  0  0  0  0  0  0  0
   15.1270   31.8061   20.6781 C   0  0  0  0  0  0  0  0  0  0  0  0
   13.7622   32.1274   21.0711 C   0  0  0  0  0  0  0  0  0  0  0  0
   12.8416   31.3227   20.9385 O   0  0  0  0  0  0  0  0  0  0  0  0
   13.5514   33.4303   21.5921 N   0  0  0  0  0  0  0  0  0  0  0  0
   14.6443   34.3417   21.7184 C   0  0  0  0  0  0  0  0  0  0  0  0
   14.4293   35.6319   22.2471 N   0  0  0  0  0  0  0  0  0  0  0  0
   15.8409   34.0053   21.3572 N   0  0  0  0  0  0  0  0  0  0  0  0
   16.0884   32.7242   20.8290 C   0  0  0  0  0  0  0  0  0  0  0  0
   20.4472   36.9614   20.3202 P   0  0  0  0  0  0  0  0  0  0  0  0
   20.6416   37.8515   19.0049 O   0  5  0  0  0  0  0  0  0  0  0  0
   18.9258   37.2851   20.9625 O   0  0  0  0  0  0  0  0  0  0  0  0
   21.6406   37.3618   21.4413 O   0  0  0  0  0  0  0  0  0  0  0  0
   22.9353   36.8808   21.0342 C   0  0  0  0  0  0  0  0  0  0  0  0
   24.0294   37.6421   21.8234 C   0  0  1  0  0  0  0  0  0  0  0  0
   23.8348   37.3954   23.2285 O   0  0  0  0  0  0  0  0  0  0  0  0
   25.4726   37.1822   21.5015 C   0  0  1  0  0  0  0  0  0  0  0  0
   26.0387   37.8570   20.3702 O   0  0  0  0  0  0  0  0  0  0  0  0
   26.2201   37.5476   22.8004 C   0  0  0  0  0  0  0  0  0  0  0  0
   25.1075   37.5727   23.8807 C   0  0  2  0  0  0  0  0  0  0  0  0
   25.2809   36.5152   24.8773 N   0  0  0  0  0  0  0  0  0  0  0  0
   25.8343   36.7772   26.1617 C   0  0  0  0  0  0  0  0  0  0  0  0
   26.2208   37.8998   26.4866 O   0  0  0  0  0  0  0  0  0  0  0  0
   25.9546   35.7263   27.0985 N   0  0  0  0  0  0  0  0  0  0  0  0
   25.5677   34.5258   26.8289 C   0  0  0  0  0  0  0  0  0  0  0  0
   25.7049   33.5147   27.8033 N   0  0  0  0  0  0  0  0  0  0  0  0
   24.9797   34.2186   25.5174 C   0  0  0  0  0  0  0  0  0  0  0  0
   24.8448   35.1895   24.5985 C   0  0  0  0  0  0  0  0  0  0  0  0
   23.9386   38.6037   21.5644 H   0  0  0  0  0  0  0  0  0  0  0  0
   25.5233   36.2155   21.2505 H   0  0  0  0  0  0  0  0  0  0  0  0
   25.4618   37.7114   19.5752 H   0  0  0  0  0  0  0  0  0  0  0  0
   26.6604   38.4418   22.7192 H   0  0  0  0  0  0  0  0  0  0  0  0
   26.9512   36.9011   23.0180 H   0  0  0  0  0  0  0  0  0  0  0  0
   25.1558   38.4504   24.3576 H   0  0  0  0  0  0  0  0  0  0  0  0
   25.4026   32.5678   27.5981 H   0  0  0  0  0  0  0  0  0  0  0  0
   26.1058   33.7343   28.7095 H   0  0  0  0  0  0  0  0  0  0  0  0
   24.6801   33.2875   25.3091 H   0  0  0  0  0  0  0  0  0  0  0  0
   24.4346   34.9788   23.7112 H   0  0  0  0  0  0  0  0  0  0  0  0
   22.2104   34.5231   22.5532 H   0  0  0  0  0  0  0  0  0  0  0  0
   20.8909   32.7093   22.9875 H   0  0  0  0  0  0  0  0  0  0  0  0
   21.8887   31.7748   22.0742 H   0  0  0  0  0  0  0  0  0  0  0  0
   21.3281   33.0189   20.1488 H   0  0  0  0  0  0  0  0  0  0  0  0
   20.3015   34.9301   21.8519 H   0  0  0  0  0  0  0  0  0  0  0  0
   17.5570   30.1979   19.4954 H   0  0  0  0  0  0  0  0  0  0  0  0
   18.1723   34.9081   20.1561 H   0  0  0  0  0  0  0  0  0  0  0  0
   18.0276   34.2856   21.6103 H   0  0  0  0  0  0  0  0  0  0  0  0
   18.6569   32.8681   19.1403 H   0  0  0  0  0  0  0  0  0  0  0  0
   12.6198   33.7160   21.8764 H   0  0  0  0  0  0  0  0  0  0  0  0
   15.2057   36.2795   22.3368 H   0  0  0  0  0  0  0  0  0  0  0  0
   13.4982   35.9126   22.5377 H   0  0  0  0  0  0  0  0  0  0  0  0
   23.0582   37.0341   20.0537 H   0  0  0  0  0  0  0  0  0  0  0  0
   23.0054   35.9012   21.2227 H   0  0  0  0  0  0  0  0  0  0  0  0
  1 49  1  0  0  0  0
  1  2  1  0  0  0  0
  2  3  1  0  0  0  0
  2 50  1  0  0  0  0
  2 51  1  0  0  0  0
  3  5  1  0  0  0  0
  3  4  1  0  0  0  0
  3 52  1  0  0  0  0
  4  8  1  0  0  0  0
  5  7  1  0  0  0  0
  5  6  1  0  0  0  0
  5 53  1  0  0  0  0
  6 20  1  0  0  0  0
  7  8  1  0  0  0  0
  7 55  1  0  0  0  0
  7 56  1  0  0  0  0
  8  9  1  0  0  0  0
  8 57  1  0  0  0  0
  9 19  1  0  0  0  0
  9 10  1  0  0  0  0
 10 11  2  0  0  0  0
 10 54  1  0  0  0  0
 11 12  1  0  0  0  0
 12 19  2  0  0  0  0
 12 13  1  0  0  0  0
 13 15  1  0  0  0  0
 13 14  2  0  0  0  0
 15 58  1  0  0  0  0
 15 16  1  0  0  0  0
 16 18  2  0  0  0  0
 16 17  1  0  0  0  0
 17 60  1  0  0  0  0
 17 59  1  0  0  0  0
 18 19  1  0  0  0  0
 20 23  1  0  0  0  0
 20 22  2  0  0  0  0
 20 21  1  0  0  0  0
 23 24  1  0  0  0  0
 24 25  1  0  0  0  0
 24 61  1  0  0  0  0
 24 62  1  0  0  0  0
 25 27  1  0  0  0  0
 25 26  1  0  0  0  0
 25 39  1  0  0  0  0
 26 30  1  0  0  0  0
 27 29  1  0  0  0  0
 27 28  1  0  0  0  0
 27 40  1  0  0  0  0
 28 41  1  0  0  0  0
 29 30  1  0  0  0  0
 29 42  1  0  0  0  0
 29 43  1  0  0  0  0
 30 31  1  0  0  0  0
 30 44  1  0  0  0  0
 31 38  1  0  0  0  0
 31 32  1  0  0  0  0
 32 34  1  0  0  0  0
 32 33  2  0  0  0  0
 34 35  2  0  0  0  0
 35 37  1  0  0  0  0
 35 36  1  0  0  0  0
 36 46  1  0  0  0  0
 36 45  1  0  0  0  0
 37 38  2  0  0  0  0
 37 47  1  0  0  0  0
 38 48  1  0  0  0  0
M  CHG  1  21 -1
M  END
> <BioMolTech Lead Finder dG>
  -5.266

> <BioMolTech Lead Finder VSscore>
 -15.652

> <BioMolTech Lead Finder Rank score>
  -7.626

> <BioMolTech Lead Finder LE>
  -0.139

> <BioMolTech Lead Finder Structure Name>
all.sdf-ligand-10

> <BioMolTech Lead Finder SDF id>
9

> <BioMolTech Lead Finder Pose rank>
0

> <BioMolTech Lead Finder version>
2006 2, 13 June 2020

$$$$
